reduced_networks/ieee34/59pct/dss/Loads.dss
! Phase-wise constant-PQ injections aggregated by assignment; positive DSS power is consumption.
new Load.agg_4 phases=1 bus1=800.1 conn=wye kv=14.37602170282168 kw=-4.280999999999999e-08 kvar=-3.71625e-08 model=1
new Load.agg_5 phases=1 bus1=800.2 conn=wye kv=14.37602170282168 kw=29.99999398415 kvar=14.9999970621825 model=1
new Load.agg_6 phases=1 bus1=800.3 conn=wye kv=14.37602170282168 kw=24.9999949853975 kvar=13.9999971483125 model=1
new Load.agg_7 phases=1 bus1=808.1 conn=wye kv=14.37602170282168 kw=7.5e-12 kvar=-5.000000000000001e-12 model=1
new Load.agg_8 phases=1 bus1=808.2 conn=wye kv=14.37602170282168 kw=16.4767589100075 kvar=8.483879822102502 model=1
new Load.agg_9 phases=1 bus1=808.3 conn=wye kv=14.37602170282168 kw=7.5e-12 kvar=-2.75e-11 model=1
new Load.agg_10 phases=1 bus1=812.1 conn=wye kv=14.37602170282168 kw=2.5e-12 kvar=7.5e-12 model=1
new Load.agg_11 phases=1 bus1=812.2 conn=wye kv=14.37602170282168 kw=-1.5e-11 kvar=-2.5e-11 model=1
new Load.agg_12 phases=1 bus1=812.3 conn=wye kv=14.37602170282168 kw=-2.5e-12 kvar=5.000000000000001e-12 model=1
new Load.agg_13 phases=1 bus1=814.1 conn=wye kv=14.37602170282168 kw=4.7e-10 kvar=-2e-11 model=1
new Load.agg_14 phases=1 bus1=814.2 conn=wye kv=14.37602170282168 kw=-1.2e-10 kvar=7.75e-11 model=1
new Load.agg_15 phases=1 bus1=814.3 conn=wye kv=14.37602170282168 kw=-6.275000000000001e-10 kvar=-1.5e-11 model=1
new Load.agg_16 phases=1 bus1=814r.1 conn=wye kv=14.37602170282168 kw=-7.905e-09 kvar=1.064e-08 model=1
new Load.agg_17 phases=1 bus1=814r.2 conn=wye kv=14.37602170282168 kw=-1.744e-08 kvar=-1.225000000000007e-10 model=1
new Load.agg_18 phases=1 bus1=814r.3 conn=wye kv=14.37602170282168 kw=8.355000000000001e-09 kvar=1.5675e-09 model=1
new Load.agg_19 phases=1 bus1=816.1 conn=wye kv=14.37602170282168 kw=17.952512245955 kvar=8.9762561216225 model=1
new Load.agg_20 phases=1 bus1=816.2 conn=wye kv=14.37602170282168 kw=1.5676887884075 kvar=-0.23564601018 model=1
new Load.agg_21 phases=1 bus1=816.3 conn=wye kv=14.37602170282168 kw=0.97224638289 kvar=1.251620079075 model=1
new Load.agg_22 phases=1 bus1=824.1 conn=wye kv=14.37602170282168 kw=3.4999420824075 kvar=1.499975171675 model=1
new Load.agg_23 phases=1 bus1=824.2 conn=wye kv=14.37602170282168 kw=41.9618515852075 kvar=19.97071768527 model=1
new Load.agg_24 phases=1 bus1=824.3 conn=wye kv=14.37602170282168 kw=4.96476269577 kvar=3.24079845638 model=1
new Load.agg_25 phases=1 bus1=820.1 conn=wye kv=14.37602170282168 kw=152.1394026716025 kvar=78.569653170775 model=1
new Load.agg_26 phases=1 bus1=830.1 conn=wye kv=14.37602170282168 kw=19.566597098555 kvar=13.3412724163025 model=1
new Load.agg_27 phases=1 bus1=830.2 conn=wye kv=14.37602170282168 kw=13.879991890555 kvar=6.919649176875001 model=1
new Load.agg_28 phases=1 bus1=830.3 conn=wye kv=14.37602170282168 kw=18.6967622176225 kvar=3.0767365345075 model=1
new Load.agg_29 phases=1 bus1=832.1 conn=wye kv=14.37602170282168 kw=316.3028011683375 kvar=253.6738088413599 model=1
new Load.agg_30 phases=1 bus1=832.2 conn=wye kv=14.37602170282168 kw=340.7947606761375 kvar=224.040119041965 model=1
new Load.agg_31 phases=1 bus1=832.3 conn=wye kv=14.37602170282168 kw=352.501987698935 kvar=195.4588189925075 model=1
new Load.agg_32 phases=1 bus1=852r.1 conn=wye kv=14.37602170282168 kw=1.34425e-08 kvar=-2.76225e-08 model=1
new Load.agg_33 phases=1 bus1=852r.2 conn=wye kv=14.37602170282168 kw=3.8565e-08 kvar=3.4325e-09 model=1
new Load.agg_34 phases=1 bus1=852r.3 conn=wye kv=14.37602170282168 kw=-1.675e-10 kvar=1.84e-08 model=1
new Load.agg_36 phases=1 bus1=888.2 conn=wye kv=2.401777119828843 kw=-2.5e-12 kvar=2.5e-12 model=1
new Load.agg_37 phases=1 bus1=888.3 conn=wye kv=2.401777119828843 kw=2.5e-12 kvar=5.000000000000001e-12 model=1
new Load.agg_38 phases=1 bus1=852.1 conn=wye kv=14.37602170282168 kw=-1.075e-10 kvar=-2.275e-10 model=1
new Load.agg_39 phases=1 bus1=852.2 conn=wye kv=14.37602170282168 kw=-1.4475e-09 kvar=6.45e-10 model=1
new Load.agg_40 phases=1 bus1=852.3 conn=wye kv=14.37602170282168 kw=5.45e-10 kvar=-1.105e-09 model=1
new Load.agg_41 phases=1 bus1=890.1 conn=wye kv=2.401777119828843 kw=139.05269474413 kvar=71.1409912182225 model=1
new Load.agg_42 phases=1 bus1=890.2 conn=wye kv=2.401777119828843 kw=140.4244143738 kvar=68.6411072355875 model=1
new Load.agg_43 phases=1 bus1=890.3 conn=wye kv=2.401777119828843 kw=137.7770998083725 kvar=68.84488340762749 model=1
